$ Cantilever Beam - Modal Analysis
$ 10 CBAR elements, L=1.0m, Al 6061, 0.01x0.01m
$ Analytical 1st bending: f1 = (1.8751)^2/(2*pi*L^2) * sqrt(EI/(rho*A))
$ = 3.516/(2*pi) * sqrt(7e10*8.333e-10/(2700*1e-4)) = 82.58 Hz (approx)
$
NASTRAN SYSTEM(1)=0
ID CANTILEVER,MODES
SOL 103
CEND
$
TITLE = CANTILEVER BEAM MODAL ANALYSIS
SPC = 1
METHOD = 1
$
BEGIN BULK
$
EIGRL,1,,,6
$
GRID,1,,0.0,0.0,0.0
GRID,2,,0.1,0.0,0.0
GRID,3,,0.2,0.0,0.0
GRID,4,,0.3,0.0,0.0
GRID,5,,0.4,0.0,0.0
GRID,6,,0.5,0.0,0.0
GRID,7,,0.6,0.0,0.0
GRID,8,,0.7,0.0,0.0
GRID,9,,0.8,0.0,0.0
GRID,10,,0.9,0.0,0.0
GRID,11,,1.0,0.0,0.0
$
CBAR,1,1,1,2,0.0,1.0,0.0
CBAR,2,1,2,3,0.0,1.0,0.0
CBAR,3,1,3,4,0.0,1.0,0.0
CBAR,4,1,4,5,0.0,1.0,0.0
CBAR,5,1,5,6,0.0,1.0,0.0
CBAR,6,1,6,7,0.0,1.0,0.0
CBAR,7,1,7,8,0.0,1.0,0.0
CBAR,8,1,8,9,0.0,1.0,0.0
CBAR,9,1,9,10,0.0,1.0,0.0
CBAR,10,1,10,11,0.0,1.0,0.0
$
PBAR,1,1,1.0e-4,8.333e-10,8.333e-10,1.406e-9
MAT1,1,7.0e+10,,0.3,2700.0
$
SPC1,1,123456,1
$
ENDDATA
