$ Cantilever Beam - 10 CBAR elements
$ L=1.0m, Al 6061, 0.01x0.01m cross-section, 100N tip load
$ Analytical: delta = PL^3/(3EI) = 100*1.0^3/(3*7e10*8.333e-10) = 5.714e-4 m
$
NASTRAN SYSTEM(1)=0
ID CANTILEVER,BEAM
SOL 101
CEND
$
TITLE = CANTILEVER BEAM VALIDATION
SPC = 1
LOAD = 1
DISPLACEMENT(PRINT) = ALL
SPCFORCES(PRINT) = ALL
$
BEGIN BULK
$
$ Nodes: 11 nodes along X from 0 to 1.0
GRID,1,,0.0,0.0,0.0,,123456
GRID,2,,0.1,0.0,0.0
GRID,3,,0.2,0.0,0.0
GRID,4,,0.3,0.0,0.0
GRID,5,,0.4,0.0,0.0
GRID,6,,0.5,0.0,0.0
GRID,7,,0.6,0.0,0.0
GRID,8,,0.7,0.0,0.0
GRID,9,,0.8,0.0,0.0
GRID,10,,0.9,0.0,0.0
GRID,11,,1.0,0.0,0.0
$
$ Elements: 10 CBAR elements
CBAR,1,1,1,2,0.0,1.0,0.0
CBAR,2,1,2,3,0.0,1.0,0.0
CBAR,3,1,3,4,0.0,1.0,0.0
CBAR,4,1,4,5,0.0,1.0,0.0
CBAR,5,1,5,6,0.0,1.0,0.0
CBAR,6,1,6,7,0.0,1.0,0.0
CBAR,7,1,7,8,0.0,1.0,0.0
CBAR,8,1,8,9,0.0,1.0,0.0
CBAR,9,1,9,10,0.0,1.0,0.0
CBAR,10,1,10,11,0.0,1.0,0.0
$
$ Property and Material (free-field to avoid 8-char overflow)
PBAR,1,1,1.0e-4,8.333e-10,8.333e-10,1.406e-9
MAT1,1,7.0e+10,,0.3,2700.0
$
$ Constraints: node 1 fixed (also via GRID PS field)
SPC1,1,123456,1
$
$ Load: 100N in Z direction at tip node 11
FORCE,1,11,,100.0,0.0,0.0,1.0
$
ENDDATA
