$ Simply-Supported Square Plate - Natural Frequencies
$ 4x4 CQUAD4 mesh, L=1.0m, t=0.01m, Steel
$ Analytical: f_mn = (pi/2)*sqrt(D/(rho*t)) * (m^2/a^2 + n^2/b^2)^0.5
$ D = E*t^3/(12*(1-nu^2)) = 2.1e11*0.01^3/(12*(1-0.09)) = 192.31 N*m
$ f_11 = (pi/2)*sqrt(192.31/(7850*0.01)) * sqrt(1+1) = 48.67 Hz (approx)
$
NASTRAN SYSTEM(1)=0
ID PLATE,MODES
SOL 103
CEND
$
TITLE = SIMPLY SUPPORTED PLATE - MODAL ANALYSIS
SPC = 1
METHOD = 10
$
BEGIN BULK
$
$ Eigenvalue extraction: 10 modes
EIGRL,10,,,10
$
$ 5x5 grid of nodes (25 nodes)
GRID,1,,0.0,0.0,0.0
GRID,2,,0.25,0.0,0.0
GRID,3,,0.5,0.0,0.0
GRID,4,,0.75,0.0,0.0
GRID,5,,1.0,0.0,0.0
GRID,6,,0.0,0.25,0.0
GRID,7,,0.25,0.25,0.0
GRID,8,,0.5,0.25,0.0
GRID,9,,0.75,0.25,0.0
GRID,10,,1.0,0.25,0.0
GRID,11,,0.0,0.5,0.0
GRID,12,,0.25,0.5,0.0
GRID,13,,0.5,0.5,0.0
GRID,14,,0.75,0.5,0.0
GRID,15,,1.0,0.5,0.0
GRID,16,,0.0,0.75,0.0
GRID,17,,0.25,0.75,0.0
GRID,18,,0.5,0.75,0.0
GRID,19,,0.75,0.75,0.0
GRID,20,,1.0,0.75,0.0
$ ... 5 like lines cut
$
$ 4x4 = 16 CQUAD4 elements
CQUAD4,1,1,1,2,7,6
CQUAD4,2,1,2,3,8,7
CQUAD4,3,1,3,4,9,8
CQUAD4,4,1,4,5,10,9
CQUAD4,5,1,6,7,12,11
CQUAD4,6,1,7,8,13,12
CQUAD4,7,1,8,9,14,13
CQUAD4,8,1,9,10,15,14
CQUAD4,9,1,11,12,17,16
CQUAD4,10,1,12,13,18,17
CQUAD4,11,1,13,14,19,18
CQUAD4,12,1,14,15,20,19
CQUAD4,13,1,16,17,22,21
CQUAD4,14,1,17,18,23,22
CQUAD4,15,1,18,19,24,23
CQUAD4,16,1,19,20,25,24
$
$ Property: PSHELL with t=0.01
PSHELL,1,1,0.01,1
$
$ Material: Steel
MAT1,1,2.1e+11,,0.3,7850.0
$
$ Simply-supported BC: all edges constrained in Z translation (DOF 3)
$ Edge y=0 (nodes 1-5)
SPC1,1,3,1,2,3,4,5
$ Edge y=1 (nodes 21-25)
SPC1,1,3,21,22,23,24,25
$ Edge x=0 (nodes 1,6,11,16,21)
SPC1,1,3,1,6,11,16,21
$ Edge x=1 (nodes 5,10,15,20,25)
SPC1,1,3,5,10,15,20,25
$ Pin corners to prevent rigid body modes in-plane
SPC1,1,12,1
SPC1,1,1,5
SPC1,1,2,21
$
ENDDATA
