$ NastAero VM3: Simply-Supported Plate Under Uniform Pressure
$ Reference: Timoshenko - Theory of Plates and Shells
$ 8x8 CQUAD4 mesh, a=b=1.0m, t=0.01m, E=200GPa, nu=0.3
$ Uniform pressure p=1000 Pa (applied as nodal forces)
$ Analytical center deflection:
$ w_max = alpha*p*a^4/D where alpha=0.00406 for a/b=1
$ D = E*t^3/(12*(1-nu^2)) = 200e9*1e-6/(12*0.91) = 18315.02 N-m
$ w_max = 0.00406*1000*1.0/18315.02 = 2.216e-4 m
$
SOL 101
CEND
TITLE = VM3 - SIMPLY SUPPORTED PLATE UNDER PRESSURE
SPC = 1
LOAD = 1
DISPLACEMENT(PRINT) = ALL
BEGIN BULK
$
$ 9x9 grid = 81 nodes
$ Generate grid points for x=0,0.125,0.25,...,1.0 and y=0,0.125,...,1.0
GRID,1,,0.0,0.0,0.0
GRID,2,,0.125,0.0,0.0
GRID,3,,0.25,0.0,0.0
GRID,4,,0.375,0.0,0.0
GRID,5,,0.5,0.0,0.0
GRID,6,,0.625,0.0,0.0
GRID,7,,0.75,0.0,0.0
GRID,8,,0.875,0.0,0.0
GRID,9,,1.0,0.0,0.0
GRID,10,,0.0,0.125,0.0
GRID,11,,0.125,0.125,0.0
GRID,12,,0.25,0.125,0.0
GRID,13,,0.375,0.125,0.0
GRID,14,,0.5,0.125,0.0
GRID,15,,0.625,0.125,0.0
GRID,16,,0.75,0.125,0.0
GRID,17,,0.875,0.125,0.0
GRID,18,,1.0,0.125,0.0
GRID,19,,0.0,0.25,0.0
GRID,20,,0.125,0.25,0.0
$ ... 61 like lines cut
$
$ 8x8 = 64 CQUAD4 elements
CQUAD4,1,1,1,2,11,10
CQUAD4,2,1,2,3,12,11
CQUAD4,3,1,3,4,13,12
CQUAD4,4,1,4,5,14,13
CQUAD4,5,1,5,6,15,14
CQUAD4,6,1,6,7,16,15
CQUAD4,7,1,7,8,17,16
CQUAD4,8,1,8,9,18,17
CQUAD4,9,1,10,11,20,19
CQUAD4,10,1,11,12,21,20
CQUAD4,11,1,12,13,22,21
CQUAD4,12,1,13,14,23,22
CQUAD4,13,1,14,15,24,23
CQUAD4,14,1,15,16,25,24
CQUAD4,15,1,16,17,26,25
CQUAD4,16,1,17,18,27,26
CQUAD4,17,1,19,20,29,28
CQUAD4,18,1,20,21,30,29
CQUAD4,19,1,21,22,31,30
CQUAD4,20,1,22,23,32,31
$ ... 44 like lines cut
$
PSHELL,1,1,0.01,1
MAT1,1,200.0e9,,0.3,7850.0
$
$ Simply-supported: w=0 on all edges
$ Bottom edge y=0 (nodes 1-9)
SPC1,1,3,1,2,3,4,5,6,7,8,9
$ Top edge y=1 (nodes 73-81)
SPC1,1,3,73,74,75,76,77,78,79,80,81
$ Left edge x=0 (nodes 1,10,19,28,37,46,55,64,73)
SPC1,1,3,1,10,19,28,37,46,55,64,73
$ Right edge x=1 (nodes 9,18,27,36,45,54,63,72,81)
SPC1,1,3,9,18,27,36,45,54,63,72,81
$ Prevent rigid body: pin corner 1
SPC1,1,12,1
SPC1,1,1,9
SPC1,1,2,73
$
$ Uniform pressure 1000 Pa as nodal forces
$ Interior nodes: full tributary area = 0.125*0.125 = 0.015625 m^2
$ Edge nodes: half area = 0.0078125 m^2
$ Corner nodes: quarter area = 0.00390625 m^2
$ Force = pressure * area (in -Z direction... but SS plate -> +Z for gravity convention)
$ Actually applying as downward force (-Z) at each node
$ Interior nodes (49 nodes): F = 1000 * 0.015625 = 15.625 N
$ Edge interior (28 nodes): F = 1000 * 0.0078125 = 7.8125 N
$ Corner nodes (4 nodes): F = 1000 * 0.00390625 = 3.90625 N
$
$ Interior nodes (non-edge): rows 2-8 (y=0.125..0.875), cols 2-8 (x=0.125..0.875)
$ These are: 11-17, 20-26, 29-35, 38-44, 47-53, 56-62, 65-71
FORCE,1,11,,15.625,0.0,0.0,-1.0
FORCE,1,12,,15.625,0.0,0.0,-1.0
FORCE,1,13,,15.625,0.0,0.0,-1.0
FORCE,1,14,,15.625,0.0,0.0,-1.0
FORCE,1,15,,15.625,0.0,0.0,-1.0
FORCE,1,16,,15.625,0.0,0.0,-1.0
FORCE,1,17,,15.625,0.0,0.0,-1.0
FORCE,1,20,,15.625,0.0,0.0,-1.0
FORCE,1,21,,15.625,0.0,0.0,-1.0
FORCE,1,22,,15.625,0.0,0.0,-1.0
FORCE,1,23,,15.625,0.0,0.0,-1.0
FORCE,1,24,,15.625,0.0,0.0,-1.0
FORCE,1,25,,15.625,0.0,0.0,-1.0
FORCE,1,26,,15.625,0.0,0.0,-1.0
FORCE,1,29,,15.625,0.0,0.0,-1.0
FORCE,1,30,,15.625,0.0,0.0,-1.0
FORCE,1,31,,15.625,0.0,0.0,-1.0
FORCE,1,32,,15.625,0.0,0.0,-1.0
FORCE,1,33,,15.625,0.0,0.0,-1.0
FORCE,1,34,,15.625,0.0,0.0,-1.0
$ ... 29 like lines cut
$
$ Edge nodes (non-corner): edges of the grid
$ Bottom edge (y=0): nodes 2-8
FORCE,1,2,,7.8125,0.0,0.0,-1.0
FORCE,1,3,,7.8125,0.0,0.0,-1.0
FORCE,1,4,,7.8125,0.0,0.0,-1.0
FORCE,1,5,,7.8125,0.0,0.0,-1.0
FORCE,1,6,,7.8125,0.0,0.0,-1.0
FORCE,1,7,,7.8125,0.0,0.0,-1.0
FORCE,1,8,,7.8125,0.0,0.0,-1.0
$ Top edge (y=1): nodes 74-80
FORCE,1,74,,7.8125,0.0,0.0,-1.0
FORCE,1,75,,7.8125,0.0,0.0,-1.0
FORCE,1,76,,7.8125,0.0,0.0,-1.0
FORCE,1,77,,7.8125,0.0,0.0,-1.0
FORCE,1,78,,7.8125,0.0,0.0,-1.0
FORCE,1,79,,7.8125,0.0,0.0,-1.0
FORCE,1,80,,7.8125,0.0,0.0,-1.0
$ Left edge (x=0): nodes 10,19,28,37,46,55,64
FORCE,1,10,,7.8125,0.0,0.0,-1.0
FORCE,1,19,,7.8125,0.0,0.0,-1.0
FORCE,1,28,,7.8125,0.0,0.0,-1.0
FORCE,1,37,,7.8125,0.0,0.0,-1.0
FORCE,1,46,,7.8125,0.0,0.0,-1.0
FORCE,1,55,,7.8125,0.0,0.0,-1.0
FORCE,1,64,,7.8125,0.0,0.0,-1.0
$ Right edge (x=1): nodes 18,27,36,45,54,63,72
FORCE,1,18,,7.8125,0.0,0.0,-1.0
FORCE,1,27,,7.8125,0.0,0.0,-1.0
FORCE,1,36,,7.8125,0.0,0.0,-1.0
FORCE,1,45,,7.8125,0.0,0.0,-1.0
FORCE,1,54,,7.8125,0.0,0.0,-1.0
FORCE,1,63,,7.8125,0.0,0.0,-1.0
FORCE,1,72,,7.8125,0.0,0.0,-1.0
$
$ Corner nodes: 1, 9, 73, 81
FORCE,1,1,,3.90625,0.0,0.0,-1.0
FORCE,1,9,,3.90625,0.0,0.0,-1.0
FORCE,1,73,,3.90625,0.0,0.0,-1.0
FORCE,1,81,,3.90625,0.0,0.0,-1.0
$
ENDDATA
