$ Goland Wing - Static Aeroelastic Trim (SOL 144)
$ Ref: Goland & Luke (1948) - Classic aeroelastic benchmark
$ Wing: L=6.096m, c=1.8288m, elastic axis at 33% chord
$ 10 CBAR structural elements + 8x2 DLM aero panels
$
SOL 144
CEND
$
TITLE = GOLAND WING STATIC AEROELASTIC TRIM
SPC = 1
TRIM = 1
DISPLACEMENT = ALL
$
BEGIN BULK
$
$ Reference aerodynamic data
$ AEROS ACSID RCSID REFC   REFB    REFS
AEROS,  0,    0,    1.8288,12.192, 22.296
$
$ AERO   ACSID VELOCITY REFC   RHOREF
AERO,   0,    50.0,    1.8288,1.225
$
$ -------- STRUCTURAL MODEL --------
$ Nodes along elastic axis (33% chord, y=0 to y=6.096)
$ Wing root at y=0, wing tip at y=6.096
GRID,  1, , 0.6035, 0.0,    0.0
GRID,  2, , 0.6035, 0.6096, 0.0
GRID,  3, , 0.6035, 1.2192, 0.0
GRID,  4, , 0.6035, 1.8288, 0.0
GRID,  5, , 0.6035, 2.4384, 0.0
GRID,  6, , 0.6035, 3.048,  0.0
GRID,  7, , 0.6035, 3.6576, 0.0
GRID,  8, , 0.6035, 4.2672, 0.0
GRID,  9, , 0.6035, 4.8768, 0.0
GRID, 10, , 0.6035, 5.4864, 0.0
GRID, 11, , 0.6035, 6.096,  0.0
$
$ Beam elements
$ CBAR  EID PID GA GB  X1  X2  X3
CBAR,  1, 1, 1,  2,  0.0,0.0,1.0
CBAR,  2, 1, 2,  3,  0.0,0.0,1.0
CBAR,  3, 1, 3,  4,  0.0,0.0,1.0
CBAR,  4, 1, 4,  5,  0.0,0.0,1.0
CBAR,  5, 1, 5,  6,  0.0,0.0,1.0
CBAR,  6, 1, 6,  7,  0.0,0.0,1.0
CBAR,  7, 1, 7,  8,  0.0,0.0,1.0
CBAR,  8, 1, 8,  9,  0.0,0.0,1.0
CBAR,  9, 1, 9, 10,  0.0,0.0,1.0
CBAR, 10, 1,10, 11,  0.0,0.0,1.0
$
$ Beam property (Goland wing cross-section)
$ EI_bending = 9.77e6 N-m^2, GJ_torsion = 0.99e6 N-m^2
$ m = 35.71 kg/m, A = 0.01 m^2
$ PBAR PID MID A   I1       I2       J
PBAR, 1, 1, 0.01, 1.395E-4, 1.395E-4, 1.285E-5
$
$ Material (effective properties)
$ E = 7.0e10 Pa, G = 7.7e10 Pa (to match EI and GJ)
$ rho = 3571 kg/m^3 (to match m=35.71 kg/m with A=0.01)
MAT1, 1, 7.0E10, 7.7E10, 0.3, 3571.0
$
$ Root constraint (clamped)
SPC1, 1, 123456, 1
$
$ -------- AERODYNAMIC MODEL --------
$ CAERO1: Rectangular wing panel
$ LE at x=0, TE at x=1.8288, span from y=0 to y=6.096
$ 8 spanwise x 2 chordwise boxes
$ CAERO1 EID PID CP NSPAN NCHORD LSPAN LCHORD IGID
CAERO1,1001,1001, 0, 8,   2,    0,    0,     1,+CA1
+CA1,  0.0, 0.0, 0.0, 1.8288, 0.0, 6.096, 0.0, 1.8288
$
$ Aerodynamic property
PAERO1, 1001
$
$ -------- SPLINE --------
$ Infinite plate spline connecting aero to structure
$ SPLINE1 EID CAERO BOX1 BOX2 SETG DZ
SPLINE1, 100, 1001, 0,  15,  10, 0.0
$
$ Structural grid set for spline
$ SET1 SID G1 G2 ...
SET1, 10, 1, 2, 3, 4, 5, 6, 7, 8, 9, 10, 11
$
$ -------- TRIM VARIABLES --------
$ Rigid body aerodynamic variables
AESTAT, 501, ANGLEA
AESTAT, 502, URDD3
$
$ Trim condition: level flight at M=0.3, q=1531.25 Pa
$ (V=50 m/s, rho=1.225 kg/m^3 -> q=0.5*1.225*50^2=1531.25)
$ TRIM  ID  MACH  Q       LABEL1  UX1
TRIM, 1, 0.3, 1531.25, URDD3, 0.0
$
ENDDATA
