$ NastAero AVM2: Goland Wing Enhanced Trim Validation
$ Ref: Goland & Luke (1948), also MSC Nastran HA144 series
$
$ Wing: L=6.096m (half-span), c=1.8288m, EA at 33% chord
$ EI=9.77e6 N-m^2, GJ=0.99e6 N-m^2, m=35.71 kg/m
$ AR = 2*6.096/1.8288 = 6.67
$
$ Expected trim results at M=0.5, q=4000 Pa:
$   alpha ~ 0.5-2 deg (depends on flexibility)
$   Tip deflection: small but non-trivial
$   Tip twist: wash-out (negative, nose-down) due to aft AC
$
SOL 144
CEND
TITLE = AVM2 - GOLAND WING ENHANCED TRIM
SPC = 1
TRIM = 1
DISPLACEMENT = ALL
BEGIN BULK
$
$ AEROS ACSID RCSID REFC   REFB    REFS
AEROS,  0,    0,    1.8288,12.192, 22.296
$
$ AERO  ACSID VELOCITY REFC   RHOREF
AERO,   0,    80.0,    1.8288,1.225
$
$ 11 nodes along elastic axis at 33% chord (x=0.6035)
GRID,  1, , 0.6035, 0.0,    0.0
GRID,  2, , 0.6035, 0.6096, 0.0
GRID,  3, , 0.6035, 1.2192, 0.0
GRID,  4, , 0.6035, 1.8288, 0.0
GRID,  5, , 0.6035, 2.4384, 0.0
GRID,  6, , 0.6035, 3.048,  0.0
GRID,  7, , 0.6035, 3.6576, 0.0
GRID,  8, , 0.6035, 4.2672, 0.0
GRID,  9, , 0.6035, 4.8768, 0.0
GRID, 10, , 0.6035, 5.4864, 0.0
GRID, 11, , 0.6035, 6.096,  0.0
$
CBAR,  1, 1, 1,  2,  0.0,0.0,1.0
CBAR,  2, 1, 2,  3,  0.0,0.0,1.0
CBAR,  3, 1, 3,  4,  0.0,0.0,1.0
CBAR,  4, 1, 4,  5,  0.0,0.0,1.0
CBAR,  5, 1, 5,  6,  0.0,0.0,1.0
CBAR,  6, 1, 6,  7,  0.0,0.0,1.0
CBAR,  7, 1, 7,  8,  0.0,0.0,1.0
CBAR,  8, 1, 8,  9,  0.0,0.0,1.0
CBAR,  9, 1, 9, 10,  0.0,0.0,1.0
CBAR, 10, 1,10, 11,  0.0,0.0,1.0
$
$ Goland wing cross-section
PBAR, 1, 1, 0.01, 1.395E-4, 1.395E-4, 1.285E-5
MAT1, 1, 7.0E10, 7.7E10, 0.3, 3571.0
$
SPC1, 1, 123456, 1
$
$ 12 spanwise x 4 chordwise aero panels
CAERO1,1001,1001,0,12,4,0,0,1,+CA1
+CA1,  0.0, 0.0, 0.0, 1.8288, 0.0, 6.096, 0.0, 1.8288
$
PAERO1, 1001
$
SPLINE1, 100, 1001, 0, 47, 10, 0.0
SET1, 10, 1, 2, 3, 4, 5, 6, 7, 8, 9, 10, 11
$
AESTAT, 501, ANGLEA
AESTAT, 502, URDD3
$
$ q = 0.5 * 1.225 * 80^2 = 3920 Pa
TRIM, 1, 0.5, 3920.0, URDD3, 0.0
$
ENDDATA
