SOL 144
CEND
TITLE    = ILC-8T TILT VARIANT - FREE TRIM
ECHO     = NONE
SPC      = 2
SUBCASE 1
  LABEL    =1G LEVEL FLIGHT V=40 M/S EAS
  TRIM     = 1
SUBCASE 2
  LABEL    =1G LEVEL FLIGHT V=60 M/S EAS
  TRIM     = 2
SUBCASE 3
  LABEL    =1G LEVEL FLIGHT V=80 M/S EAS
  TRIM     = 3
BEGIN BULK
MAT1    1001    52000           0.31    1.55e-09
MAT1    1002    71000           0.33    2.83e-09
MAT1    1003    105000          0.3     1.57e-09
MAT1    1004    80000           0.3     1.6e-09
PSHELL  1101    1001    1.1
PSHELL  1401    1001    1.8
PSHELL  1402    1001    3
PSHELL  1403    1001    1.4
PSHELL  1601    1001    1.4
PSHELL  1602    1001    2
PSHELL  1701    1001    2
PBAR    1201    1002    140     120000  120000  240000
PBAR    1202    1003    110     30000   30000   60000
PBAR    1404    1003    350     60000   60000   120000
PBAR    1702    1002    730     540000  540000  1.08e+06
PBAR    1703    1002    730     540000  540000  1.08e+06
PBAR    1704    1002    1500    2e+06   2e+06   4e+06
PBAR    1801    1004    300     7000    30000   15000
PBAR    1802    1004    250     5000    20000   10000
GRID    100001          100     251.308 0
GRID    100002          100     242.745 65.0432
GRID    100003          100     217.639 125.654
GRID    100004          100     177.701 177.701
GRID    100005          100     125.654 217.639
GRID    100006          100     65.0432 242.745
GRID    100007          100     1.54e-14251.308
GRID    100008          100     -65.0432242.745
GRID    100009          100     -125.654217.639
GRID    100010          100     -177.701177.701
GRID    100011          100     -217.639125.654
GRID    100012          100     -242.74565.0432
GRID    100013          100     -251.3083.08e-14
GRID    100014          100     -242.745-65.0432
GRID    100015          100     -217.639-125.654
GRID    100016          100     -177.701-177.701
GRID    100017          100     -125.654-217.639
GRID    100018          100     -65.0432-242.745
GRID    100019          100     -4.6e-14-251.308
GRID    100020          100     65.0432 -242.745
$ ... 820 like lines cut
CQUAD4  1       1101    100001  100101  100102  100002
CQUAD4  2       1101    100002  100102  100103  100003
CQUAD4  3       1101    100003  100103  100104  100004
CQUAD4  4       1101    100004  100104  100105  100005
CQUAD4  5       1101    100005  100105  100106  100006
CQUAD4  6       1101    100006  100106  100107  100007
CQUAD4  7       1101    100007  100107  100108  100008
CQUAD4  8       1101    100008  100108  100109  100009
CQUAD4  9       1101    100009  100109  100110  100010
CQUAD4  10      1101    100010  100110  100111  100011
CQUAD4  11      1101    100011  100111  100112  100012
CQUAD4  12      1101    100012  100112  100113  100013
CQUAD4  13      1101    100013  100113  100114  100014
CQUAD4  14      1101    100014  100114  100115  100015
CQUAD4  15      1101    100015  100115  100116  100016
CQUAD4  16      1101    100016  100116  100117  100017
CQUAD4  17      1101    100017  100117  100118  100018
CQUAD4  18      1101    100018  100118  100119  100019
CQUAD4  19      1101    100019  100119  100120  100020
CQUAD4  20      1101    100020  100120  100121  100021
$ ... 796 like lines cut
CBAR    817     1201    100001  100002  1.0     0.      0.
CBAR    818     1201    100002  100003  1.0     0.      0.
CBAR    819     1201    100003  100004  0.      0.      1.
CBAR    820     1201    100004  100005  0.      0.      1.
CBAR    821     1201    100005  100006  0.      0.      1.
CBAR    822     1201    100006  100007  0.      0.      1.
CBAR    823     1201    100007  100008  0.      0.      1.
CBAR    824     1201    100008  100009  0.      0.      1.
CBAR    825     1201    100009  100010  0.      0.      1.
CBAR    826     1201    100010  100011  0.      0.      1.
CBAR    827     1201    100011  100012  1.0     0.      0.
CBAR    828     1201    100012  100013  1.0     0.      0.
CBAR    829     1201    100013  100014  1.0     0.      0.
CBAR    830     1201    100014  100015  1.0     0.      0.
CBAR    831     1201    100015  100016  0.      0.      1.
CBAR    832     1201    100016  100017  0.      0.      1.
CBAR    833     1201    100017  100018  0.      0.      1.
CBAR    834     1201    100018  100019  0.      0.      1.
CBAR    835     1201    100019  100020  0.      0.      1.
CBAR    836     1201    100020  100021  0.      0.      1.
$ ... 548 like lines cut
GRID    400000          3785.31 700     550
GRID    400001          3881.84 700     591.376
GRID    400002          4026.62 700     629.134
GRID    400003          4267.94 700     663.648
GRID    400004          4509.25 700     669.867
GRID    400005          4831    700     644.255
GRID    400006          5104.49 700     602.538
GRID    400007          5394.06 700     550
GRID    400008          3881.84 700     524.347
GRID    400009          4026.62 700     500.937
GRID    400010          4267.94 700     479.538
GRID    400011          4509.25 700     475.682
GRID    400012          4831    700     491.562
GRID    400013          5104.49 700     517.426
GRID    400100          3792.77 965     550
GRID    400101          3887.5  965     590.61
GRID    400102          4029.61 965     627.667
GRID    400103          4266.45 965     661.542
GRID    400104          4503.29 965     667.646
GRID    400105          4819.07 965     642.508
$ ... 274 like lines cut
CQUAD4  1385    1401    400000  400001  400101  400100
CQUAD4  1386    1401    400001  400002  400102  400101
CQUAD4  1387    1401    400002  400003  400103  400102
CQUAD4  1388    1401    400003  400004  400104  400103
CQUAD4  1389    1401    400004  400005  400105  400104
CQUAD4  1390    1401    400005  400006  400106  400105
CQUAD4  1391    1401    400006  400007  400107  400106
CQUAD4  1392    1401    400000  400100  400108  400008
CQUAD4  1393    1401    400008  400108  400109  400009
CQUAD4  1394    1401    400009  400109  400110  400010
CQUAD4  1395    1401    400010  400110  400111  400011
CQUAD4  1396    1401    400011  400111  400112  400012
CQUAD4  1397    1401    400012  400112  400113  400013
CQUAD4  1398    1401    400013  400113  400107  400007
CQUAD4  1399    1402    400002  400102  400109  400009
CQUAD4  1400    1402    400005  400105  400112  400012
CQUAD4  1401    1401    400100  400101  400201  400200
CQUAD4  1402    1401    400101  400102  400202  400201
CQUAD4  1403    1401    400102  400103  400203  400202
CQUAD4  1404    1401    400103  400104  400204  400203
$ ... 336 like lines cut
CBAR    1741    1404    400002  400102  0.      0.      1.
CBAR    1742    1404    400102  400202  0.      0.      1.
CBAR    1743    1404    400202  400302  0.      0.      1.
CBAR    1744    1404    400302  400402  0.      0.      1.
CBAR    1745    1404    400402  400502  0.      0.      1.
CBAR    1746    1404    400502  400602  0.      0.      1.
CBAR    1747    1404    400602  400702  0.      0.      1.
CBAR    1748    1404    400702  400802  0.      0.      1.
CBAR    1749    1404    400802  400902  0.      0.      1.
CBAR    1750    1404    400902  401002  0.      0.      1.
CBAR    1751    1404    401002  401102  0.      0.      1.
CBAR    1752    1404    401102  401202  0.      0.      1.
CBAR    1753    1404    401202  401302  0.      0.      1.
CBAR    1754    1404    401302  401402  0.      0.      1.
CBAR    1755    1404    401402  401502  0.      0.      1.
CBAR    1756    1404    401502  401602  0.      0.      1.
CBAR    1757    1404    401602  401702  0.      0.      1.
CBAR    1758    1404    401702  401802  0.      0.      1.
CBAR    1759    1404    401802  401902  0.      0.      1.
CBAR    1760    1404    401902  402002  0.      0.      1.
$ ... 60 like lines cut
RBE2    1821    101304  123456  400000
RBE2    1822    101404  123456  400001
RBE2    1823    101404  123456  400002
RBE2    1824    101504  123456  400003
RBE2    1825    101604  123456  400004
RBE2    1826    101704  123456  400005
RBE2    1827    101804  123456  400006
RBE2    1828    102004  123456  400007
RBE2    1829    101403  123456  400008
RBE2    1830    101403  123456  400009
RBE2    1831    101503  123456  400010
RBE2    1832    101603  123456  400011
RBE2    1833    101703  123456  400012
RBE2    1834    101803  123456  400013
GRID    300000          3785.31 -700    550
GRID    300001          3881.84 -700    591.376
GRID    300002          4026.62 -700    629.134
GRID    300003          4267.94 -700    663.648
GRID    300004          4509.25 -700    669.867
GRID    300005          4831    -700    644.255
GRID    300006          5104.49 -700    602.538
GRID    300007          5394.06 -700    550
GRID    300008          3881.84 -700    524.347
GRID    300009          4026.62 -700    500.937
GRID    300010          4267.94 -700    479.538
GRID    300011          4509.25 -700    475.682
GRID    300012          4831    -700    491.562
GRID    300013          5104.49 -700    517.426
GRID    300100          3792.77 -965    550
GRID    300101          3887.5  -965    590.61
GRID    300102          4029.61 -965    627.667
GRID    300103          4266.45 -965    661.542
GRID    300104          4503.29 -965    667.646
GRID    300105          4819.07 -965    642.508
$ ... 274 like lines cut
CQUAD4  1835    1401    300000  300001  300101  300100
CQUAD4  1836    1401    300001  300002  300102  300101
CQUAD4  1837    1401    300002  300003  300103  300102
CQUAD4  1838    1401    300003  300004  300104  300103
CQUAD4  1839    1401    300004  300005  300105  300104
CQUAD4  1840    1401    300005  300006  300106  300105
CQUAD4  1841    1401    300006  300007  300107  300106
CQUAD4  1842    1401    300000  300100  300108  300008
CQUAD4  1843    1401    300008  300108  300109  300009
CQUAD4  1844    1401    300009  300109  300110  300010
CQUAD4  1845    1401    300010  300110  300111  300011
CQUAD4  1846    1401    300011  300111  300112  300012
CQUAD4  1847    1401    300012  300112  300113  300013
CQUAD4  1848    1401    300013  300113  300107  300007
CQUAD4  1849    1402    300002  300102  300109  300009
CQUAD4  1850    1402    300005  300105  300112  300012
CQUAD4  1851    1401    300100  300101  300201  300200
CQUAD4  1852    1401    300101  300102  300202  300201
CQUAD4  1853    1401    300102  300103  300203  300202
CQUAD4  1854    1401    300103  300104  300204  300203
$ ... 336 like lines cut
CBAR    2191    1404    300002  300102  0.      0.      1.
CBAR    2192    1404    300102  300202  0.      0.      1.
CBAR    2193    1404    300202  300302  0.      0.      1.
CBAR    2194    1404    300302  300402  0.      0.      1.
CBAR    2195    1404    300402  300502  0.      0.      1.
CBAR    2196    1404    300502  300602  0.      0.      1.
CBAR    2197    1404    300602  300702  0.      0.      1.
CBAR    2198    1404    300702  300802  0.      0.      1.
CBAR    2199    1404    300802  300902  0.      0.      1.
CBAR    2200    1404    300902  301002  0.      0.      1.
CBAR    2201    1404    301002  301102  0.      0.      1.
CBAR    2202    1404    301102  301202  0.      0.      1.
CBAR    2203    1404    301202  301302  0.      0.      1.
CBAR    2204    1404    301302  301402  0.      0.      1.
CBAR    2205    1404    301402  301502  0.      0.      1.
CBAR    2206    1404    301502  301602  0.      0.      1.
CBAR    2207    1404    301602  301702  0.      0.      1.
CBAR    2208    1404    301702  301802  0.      0.      1.
CBAR    2209    1404    301802  301902  0.      0.      1.
CBAR    2210    1404    301902  302002  0.      0.      1.
$ ... 60 like lines cut
RBE2    2271    101310  123456  300000
RBE2    2272    101410  123456  300001
RBE2    2273    101410  123456  300002
RBE2    2274    101510  123456  300003
RBE2    2275    101610  123456  300004
RBE2    2276    101710  123456  300005
RBE2    2277    101810  123456  300006
RBE2    2278    102010  123456  300007
RBE2    2279    101411  123456  300008
RBE2    2280    101411  123456  300009
RBE2    2281    101511  123456  300010
RBE2    2282    101611  123456  300011
RBE2    2283    101711  123456  300012
RBE2    2284    101811  123456  300013
GRID    600000          7800    250     300
GRID    600001          7935    231.617 321.908
GRID    600002          8160    221.129 334.407
GRID    600003          8385    227.06  327.338
GRID    600004          8565    239.19  312.883
GRID    600005          8700    250     300
GRID    600006          7935    268.383 278.092
GRID    600007          8160    278.871 265.593
GRID    600008          8385    272.94  272.662
GRID    600009          8565    260.81  287.117
GRID    600100          7898.79 457.926 474.471
GRID    600101          8027.36 440.419 495.336
GRID    600102          8241.65 430.43  507.239
GRID    600103          8455.93 436.079 500.508
GRID    600104          8627.36 447.631 486.74
GRID    600105          8755.93 457.926 474.471
GRID    600106          8027.36 475.434 453.606
GRID    600107          8241.65 485.422 441.702
GRID    600108          8455.93 479.774 448.434
GRID    600109          8627.36 468.222 462.202
$ ... 60 like lines cut
CQUAD4  2285    1601    600000  600001  600101  600100
CQUAD4  2286    1601    600000  600100  600106  600006
CQUAD4  2287    1601    600001  600002  600102  600101
CQUAD4  2288    1601    600006  600106  600107  600007
CQUAD4  2289    1601    600002  600003  600103  600102
CQUAD4  2290    1601    600007  600107  600108  600008
CQUAD4  2291    1601    600003  600004  600104  600103
CQUAD4  2292    1601    600008  600108  600109  600009
CQUAD4  2293    1601    600004  600005  600105  600104
CQUAD4  2294    1601    600009  600109  600105  600005
CQUAD4  2295    1602    600001  600101  600106  600006
CQUAD4  2296    1602    600003  600103  600108  600008
CQUAD4  2297    1602    600001  600002  600007  600006
CQUAD4  2298    1602    600002  600003  600008  600007
CQUAD4  2299    1601    600100  600101  600201  600200
CQUAD4  2300    1601    600100  600200  600206  600106
CQUAD4  2301    1601    600101  600102  600202  600201
CQUAD4  2302    1601    600106  600206  600207  600107
CQUAD4  2303    1601    600102  600103  600203  600202
CQUAD4  2304    1601    600107  600207  600208  600108
$ ... 72 like lines cut
CBAR    2377    1404    600001  600101  0.      0.      1.
CBAR    2378    1404    600101  600201  0.      0.      1.
CBAR    2379    1404    600201  600301  0.      0.      1.
CBAR    2380    1404    600301  600401  0.      0.      1.
CBAR    2381    1404    600401  600501  0.      0.      1.
CBAR    2382    1404    600501  600601  0.      0.      1.
CBAR    2383    1404    600601  600701  0.      0.      1.
CBAR    2384    1404    600003  600103  0.      0.      1.
CBAR    2385    1404    600103  600203  0.      0.      1.
CBAR    2386    1404    600203  600303  0.      0.      1.
CBAR    2387    1404    600303  600403  0.      0.      1.
CBAR    2388    1404    600403  600503  0.      0.      1.
CBAR    2389    1404    600503  600603  0.      0.      1.
CBAR    2390    1404    600603  600703  0.      0.      1.
CBAR    2391    1404    600006  600106  0.      0.      1.
CBAR    2392    1404    600106  600206  0.      0.      1.
CBAR    2393    1404    600206  600306  0.      0.      1.
CBAR    2394    1404    600306  600406  0.      0.      1.
CBAR    2395    1404    600406  600506  0.      0.      1.
CBAR    2396    1404    600506  600606  0.      0.      1.
$ ... 8 like lines cut
RBE2    2405    102904  123456  600000
RBE2    2406    103005  123456  600001
RBE2    2407    103105  123456  600002
RBE2    2408    103105  123456  600003
RBE2    2409    103205  123456  600004
RBE2    2410    103304  123456  600005
RBE2    2411    103004  123456  600006
RBE2    2412    103104  123456  600007
RBE2    2413    103104  123456  600008
RBE2    2414    103204  123456  600009
GRID    500000          7800    -250    300
GRID    500001          7935    -231.617321.908
GRID    500002          8160    -221.129334.407
GRID    500003          8385    -227.06 327.338
GRID    500004          8565    -239.19 312.883
GRID    500005          8700    -250    300
GRID    500006          7935    -268.383278.092
GRID    500007          8160    -278.871265.593
GRID    500008          8385    -272.94 272.662
GRID    500009          8565    -260.81 287.117
GRID    500100          7898.79 -457.926474.471
GRID    500101          8027.36 -440.419495.336
GRID    500102          8241.65 -430.43 507.239
GRID    500103          8455.93 -436.079500.508
GRID    500104          8627.36 -447.631486.74
GRID    500105          8755.93 -457.926474.471
GRID    500106          8027.36 -475.434453.606
GRID    500107          8241.65 -485.422441.702
GRID    500108          8455.93 -479.774448.434
GRID    500109          8627.36 -468.222462.202
$ ... 60 like lines cut
CQUAD4  2415    1601    500000  500001  500101  500100
CQUAD4  2416    1601    500000  500100  500106  500006
CQUAD4  2417    1601    500001  500002  500102  500101
CQUAD4  2418    1601    500006  500106  500107  500007
CQUAD4  2419    1601    500002  500003  500103  500102
CQUAD4  2420    1601    500007  500107  500108  500008
CQUAD4  2421    1601    500003  500004  500104  500103
CQUAD4  2422    1601    500008  500108  500109  500009
CQUAD4  2423    1601    500004  500005  500105  500104
CQUAD4  2424    1601    500009  500109  500105  500005
CQUAD4  2425    1602    500001  500101  500106  500006
CQUAD4  2426    1602    500003  500103  500108  500008
CQUAD4  2427    1602    500001  500002  500007  500006
CQUAD4  2428    1602    500002  500003  500008  500007
CQUAD4  2429    1601    500100  500101  500201  500200
CQUAD4  2430    1601    500100  500200  500206  500106
CQUAD4  2431    1601    500101  500102  500202  500201
CQUAD4  2432    1601    500106  500206  500207  500107
CQUAD4  2433    1601    500102  500103  500203  500202
CQUAD4  2434    1601    500107  500207  500208  500108
$ ... 72 like lines cut
CBAR    2507    1404    500001  500101  0.      0.      1.
CBAR    2508    1404    500101  500201  0.      0.      1.
CBAR    2509    1404    500201  500301  0.      0.      1.
CBAR    2510    1404    500301  500401  0.      0.      1.
CBAR    2511    1404    500401  500501  0.      0.      1.
CBAR    2512    1404    500501  500601  0.      0.      1.
CBAR    2513    1404    500601  500701  0.      0.      1.
CBAR    2514    1404    500003  500103  0.      0.      1.
CBAR    2515    1404    500103  500203  0.      0.      1.
CBAR    2516    1404    500203  500303  0.      0.      1.
CBAR    2517    1404    500303  500403  0.      0.      1.
CBAR    2518    1404    500403  500503  0.      0.      1.
CBAR    2519    1404    500503  500603  0.      0.      1.
CBAR    2520    1404    500603  500703  0.      0.      1.
CBAR    2521    1404    500006  500106  0.      0.      1.
CBAR    2522    1404    500106  500206  0.      0.      1.
CBAR    2523    1404    500206  500306  0.      0.      1.
CBAR    2524    1404    500306  500406  0.      0.      1.
CBAR    2525    1404    500406  500506  0.      0.      1.
CBAR    2526    1404    500506  500606  0.      0.      1.
$ ... 8 like lines cut
RBE2    2535    102910  123456  500000
RBE2    2536    103009  123456  500001
RBE2    2537    103109  123456  500002
RBE2    2538    103109  123456  500003
RBE2    2539    103209  123456  500004
RBE2    2540    103310  123456  500005
RBE2    2541    103010  123456  500006
RBE2    2542    103110  123456  500007
RBE2    2543    103110  123456  500008
RBE2    2544    103210  123456  500009
GRID    710000          2000    -3875   250
GRID    710001          2000    -3898.87323.473
GRID    710002          2000    -3961.37368.882
GRID    710003          2000    -4038.63368.882
GRID    710004          2000    -4101.13323.473
GRID    710005          2000    -4125   250
GRID    710006          2000    -4101.13176.527
GRID    710007          2000    -4038.63131.118
GRID    710008          2000    -3961.37131.118
GRID    710009          2000    -3898.87176.527
GRID    710100          2250    -3875   250
GRID    710101          2250    -3898.87323.473
GRID    710102          2250    -3961.37368.882
GRID    710103          2250    -4038.63368.882
GRID    710104          2250    -4101.13323.473
GRID    710105          2250    -4125   250
GRID    710106          2250    -4101.13176.527
GRID    710107          2250    -4038.63131.118
GRID    710108          2250    -3961.37131.118
GRID    710109          2250    -3898.87176.527
$ ... 210 like lines cut
CQUAD4  2545    1701    710000  710100  710101  710001
CQUAD4  2546    1701    710001  710101  710102  710002
CQUAD4  2547    1701    710002  710102  710103  710003
CQUAD4  2548    1701    710003  710103  710104  710004
CQUAD4  2549    1701    710004  710104  710105  710005
CQUAD4  2550    1701    710005  710105  710106  710006
CQUAD4  2551    1701    710006  710106  710107  710007
CQUAD4  2552    1701    710007  710107  710108  710008
CQUAD4  2553    1701    710008  710108  710109  710009
CQUAD4  2554    1701    710009  710109  710100  710000
CQUAD4  2555    1701    710100  710200  710201  710101
CQUAD4  2556    1701    710101  710201  710202  710102
CQUAD4  2557    1701    710102  710202  710203  710103
CQUAD4  2558    1701    710103  710203  710204  710104
CQUAD4  2559    1701    710104  710204  710205  710105
CQUAD4  2560    1701    710105  710205  710206  710106
CQUAD4  2561    1701    710106  710206  710207  710107
CQUAD4  2562    1701    710107  710207  710208  710108
CQUAD4  2563    1701    710108  710208  710209  710109
CQUAD4  2564    1701    710109  710209  710200  710100
$ ... 200 like lines cut
CBAR    2765    1201    710000  710001  1.0     0.      0.
CBAR    2766    1201    710001  710002  0.      0.      1.
CBAR    2767    1201    710002  710003  0.      0.      1.
CBAR    2768    1201    710003  710004  0.      0.      1.
CBAR    2769    1201    710004  710005  1.0     0.      0.
CBAR    2770    1201    710005  710006  1.0     0.      0.
CBAR    2771    1201    710006  710007  0.      0.      1.
CBAR    2772    1201    710007  710008  0.      0.      1.
CBAR    2773    1201    710008  710009  0.      0.      1.
CBAR    2774    1201    710009  710000  1.0     0.      0.
CBAR    2775    1201    710200  710201  1.0     0.      0.
CBAR    2776    1201    710201  710202  0.      0.      1.
CBAR    2777    1201    710202  710203  0.      0.      1.
CBAR    2778    1201    710203  710204  0.      0.      1.
CBAR    2779    1201    710204  710205  1.0     0.      0.
CBAR    2780    1201    710205  710206  1.0     0.      0.
CBAR    2781    1201    710206  710207  0.      0.      1.
CBAR    2782    1201    710207  710208  0.      0.      1.
CBAR    2783    1201    710208  710209  0.      0.      1.
CBAR    2784    1201    710209  710200  1.0     0.      0.
$ ... 100 like lines cut
GRID    719010          4063.75 -4000   250
RBE2    2885    719010  123456  710900  710901  710902  710903  710904
+       710905  710906  710907  710908  710909
CBAR    2886    1703    719010  301209  1.0     0.      0.
GRID    719011          4682.5  -4000   250
RBE2    2887    719011  123456  711200  711201  711202  711203  711204
+       711205  711206  711207  711208  711209
CBAR    2888    1703    719011  301212  1.0     0.      0.
GRID    990101          3000    -4000   950
GRID    719020          3000    -4000   250
RBE2    2889    719020  123456  710400  710401  710402  710403  710404
+       710405  710406  710407  710408  710409
CBAR    2890    1702    719020  990101  1.0     0.      0.
GRID    990105          6000    -4000   950
GRID    719021          6000    -4000   250
RBE2    2891    719021  123456  711800  711801  711802  711803  711804
+       711805  711806  711807  711808  711809
CBAR    2892    1702    719021  990105  1.0     0.      0.
GRID    720000          2000    -1875   250
GRID    720001          2000    -1898.87323.473
GRID    720002          2000    -1961.37368.882
GRID    720003          2000    -2038.63368.882
GRID    720004          2000    -2101.13323.473
GRID    720005          2000    -2125   250
GRID    720006          2000    -2101.13176.527
GRID    720007          2000    -2038.63131.118
GRID    720008          2000    -1961.37131.118
GRID    720009          2000    -1898.87176.527
GRID    720100          2250    -1875   250
GRID    720101          2250    -1898.87323.473
GRID    720102          2250    -1961.37368.882
GRID    720103          2250    -2038.63368.882
GRID    720104          2250    -2101.13323.473
GRID    720105          2250    -2125   250
GRID    720106          2250    -2101.13176.527
GRID    720107          2250    -2038.63131.118
GRID    720108          2250    -1961.37131.118
GRID    720109          2250    -1898.87176.527
$ ... 210 like lines cut
CQUAD4  2893    1701    720000  720100  720101  720001
CQUAD4  2894    1701    720001  720101  720102  720002
CQUAD4  2895    1701    720002  720102  720103  720003
CQUAD4  2896    1701    720003  720103  720104  720004
CQUAD4  2897    1701    720004  720104  720105  720005
CQUAD4  2898    1701    720005  720105  720106  720006
CQUAD4  2899    1701    720006  720106  720107  720007
CQUAD4  2900    1701    720007  720107  720108  720008
CQUAD4  2901    1701    720008  720108  720109  720009
CQUAD4  2902    1701    720009  720109  720100  720000
CQUAD4  2903    1701    720100  720200  720201  720101
CQUAD4  2904    1701    720101  720201  720202  720102
CQUAD4  2905    1701    720102  720202  720203  720103
CQUAD4  2906    1701    720103  720203  720204  720104
CQUAD4  2907    1701    720104  720204  720205  720105
CQUAD4  2908    1701    720105  720205  720206  720106
CQUAD4  2909    1701    720106  720206  720207  720107
CQUAD4  2910    1701    720107  720207  720208  720108
CQUAD4  2911    1701    720108  720208  720209  720109
CQUAD4  2912    1701    720109  720209  720200  720100
$ ... 200 like lines cut
CBAR    3113    1201    720000  720001  1.0     0.      0.
CBAR    3114    1201    720001  720002  0.      0.      1.
CBAR    3115    1201    720002  720003  0.      0.      1.
CBAR    3116    1201    720003  720004  0.      0.      1.
CBAR    3117    1201    720004  720005  1.0     0.      0.
CBAR    3118    1201    720005  720006  1.0     0.      0.
CBAR    3119    1201    720006  720007  0.      0.      1.
CBAR    3120    1201    720007  720008  0.      0.      1.
CBAR    3121    1201    720008  720009  0.      0.      1.
CBAR    3122    1201    720009  720000  1.0     0.      0.
CBAR    3123    1201    720200  720201  1.0     0.      0.
CBAR    3124    1201    720201  720202  0.      0.      1.
CBAR    3125    1201    720202  720203  0.      0.      1.
CBAR    3126    1201    720203  720204  0.      0.      1.
CBAR    3127    1201    720204  720205  1.0     0.      0.
CBAR    3128    1201    720205  720206  1.0     0.      0.
CBAR    3129    1201    720206  720207  0.      0.      1.
CBAR    3130    1201    720207  720208  0.      0.      1.
CBAR    3131    1201    720208  720209  0.      0.      1.
CBAR    3132    1201    720209  720200  1.0     0.      0.
$ ... 100 like lines cut
GRID    729010          4041.25 -2000   250
RBE2    3233    729010  123456  720900  720901  720902  720903  720904
+       720905  720906  720907  720908  720909
CBAR    3234    1703    729010  300509  1.0     0.      0.
GRID    729011          4772.5  -2000   250
RBE2    3235    729011  123456  721300  721301  721302  721303  721304
+       721305  721306  721307  721308  721309
CBAR    3236    1703    729011  300512  1.0     0.      0.
GRID    990102          3000    -2000   950
GRID    729020          3000    -2000   250
RBE2    3237    729020  123456  720400  720401  720402  720403  720404
+       720405  720406  720407  720408  720409
CBAR    3238    1702    729020  990102  1.0     0.      0.
GRID    990106          6000    -2000   950
GRID    729021          6000    -2000   250
RBE2    3239    729021  123456  721800  721801  721802  721803  721804
+       721805  721806  721807  721808  721809
CBAR    3240    1702    729021  990106  1.0     0.      0.
GRID    730000          2000    2125    250
GRID    730001          2000    2101.13 323.473
GRID    730002          2000    2038.63 368.882
GRID    730003          2000    1961.37 368.882
GRID    730004          2000    1898.87 323.473
GRID    730005          2000    1875    250
GRID    730006          2000    1898.87 176.527
GRID    730007          2000    1961.37 131.118
GRID    730008          2000    2038.63 131.118
GRID    730009          2000    2101.13 176.527
GRID    730100          2250    2125    250
GRID    730101          2250    2101.13 323.473
GRID    730102          2250    2038.63 368.882
GRID    730103          2250    1961.37 368.882
GRID    730104          2250    1898.87 323.473
GRID    730105          2250    1875    250
GRID    730106          2250    1898.87 176.527
GRID    730107          2250    1961.37 131.118
GRID    730108          2250    2038.63 131.118
GRID    730109          2250    2101.13 176.527
$ ... 210 like lines cut
CQUAD4  3241    1701    730000  730100  730101  730001
CQUAD4  3242    1701    730001  730101  730102  730002
CQUAD4  3243    1701    730002  730102  730103  730003
CQUAD4  3244    1701    730003  730103  730104  730004
CQUAD4  3245    1701    730004  730104  730105  730005
CQUAD4  3246    1701    730005  730105  730106  730006
CQUAD4  3247    1701    730006  730106  730107  730007
CQUAD4  3248    1701    730007  730107  730108  730008
CQUAD4  3249    1701    730008  730108  730109  730009
CQUAD4  3250    1701    730009  730109  730100  730000
CQUAD4  3251    1701    730100  730200  730201  730101
CQUAD4  3252    1701    730101  730201  730202  730102
CQUAD4  3253    1701    730102  730202  730203  730103
CQUAD4  3254    1701    730103  730203  730204  730104
CQUAD4  3255    1701    730104  730204  730205  730105
CQUAD4  3256    1701    730105  730205  730206  730106
CQUAD4  3257    1701    730106  730206  730207  730107
CQUAD4  3258    1701    730107  730207  730208  730108
CQUAD4  3259    1701    730108  730208  730209  730109
CQUAD4  3260    1701    730109  730209  730200  730100
$ ... 200 like lines cut
CBAR    3461    1201    730000  730001  1.0     0.      0.
CBAR    3462    1201    730001  730002  0.      0.      1.
CBAR    3463    1201    730002  730003  0.      0.      1.
CBAR    3464    1201    730003  730004  0.      0.      1.
CBAR    3465    1201    730004  730005  1.0     0.      0.
CBAR    3466    1201    730005  730006  1.0     0.      0.
CBAR    3467    1201    730006  730007  0.      0.      1.
CBAR    3468    1201    730007  730008  0.      0.      1.
CBAR    3469    1201    730008  730009  0.      0.      1.
CBAR    3470    1201    730009  730000  1.0     0.      0.
CBAR    3471    1201    730200  730201  1.0     0.      0.
CBAR    3472    1201    730201  730202  0.      0.      1.
CBAR    3473    1201    730202  730203  0.      0.      1.
CBAR    3474    1201    730203  730204  0.      0.      1.
CBAR    3475    1201    730204  730205  1.0     0.      0.
CBAR    3476    1201    730205  730206  1.0     0.      0.
CBAR    3477    1201    730206  730207  0.      0.      1.
CBAR    3478    1201    730207  730208  0.      0.      1.
CBAR    3479    1201    730208  730209  0.      0.      1.
CBAR    3480    1201    730209  730200  1.0     0.      0.
$ ... 100 like lines cut
GRID    739010          4041.25 2000    250
RBE2    3581    739010  123456  730900  730901  730902  730903  730904
+       730905  730906  730907  730908  730909
CBAR    3582    1703    739010  400509  1.0     0.      0.
GRID    739011          4772.5  2000    250
RBE2    3583    739011  123456  731300  731301  731302  731303  731304
+       731305  731306  731307  731308  731309
CBAR    3584    1703    739011  400512  1.0     0.      0.
GRID    990103          3000    2000    950
GRID    739020          3000    2000    250
RBE2    3585    739020  123456  730400  730401  730402  730403  730404
+       730405  730406  730407  730408  730409
CBAR    3586    1702    739020  990103  1.0     0.      0.
GRID    990107          6000    2000    950
GRID    739021          6000    2000    250
RBE2    3587    739021  123456  731800  731801  731802  731803  731804
+       731805  731806  731807  731808  731809
CBAR    3588    1702    739021  990107  1.0     0.      0.
GRID    740000          2000    4125    250
GRID    740001          2000    4101.13 323.473
GRID    740002          2000    4038.63 368.882
GRID    740003          2000    3961.37 368.882
GRID    740004          2000    3898.87 323.473
GRID    740005          2000    3875    250
GRID    740006          2000    3898.87 176.527
GRID    740007          2000    3961.37 131.118
GRID    740008          2000    4038.63 131.118
GRID    740009          2000    4101.13 176.527
GRID    740100          2250    4125    250
GRID    740101          2250    4101.13 323.473
GRID    740102          2250    4038.63 368.882
GRID    740103          2250    3961.37 368.882
GRID    740104          2250    3898.87 323.473
GRID    740105          2250    3875    250
GRID    740106          2250    3898.87 176.527
GRID    740107          2250    3961.37 131.118
GRID    740108          2250    4038.63 131.118
GRID    740109          2250    4101.13 176.527
$ ... 210 like lines cut
CQUAD4  3589    1701    740000  740100  740101  740001
CQUAD4  3590    1701    740001  740101  740102  740002
CQUAD4  3591    1701    740002  740102  740103  740003
CQUAD4  3592    1701    740003  740103  740104  740004
CQUAD4  3593    1701    740004  740104  740105  740005
CQUAD4  3594    1701    740005  740105  740106  740006
CQUAD4  3595    1701    740006  740106  740107  740007
CQUAD4  3596    1701    740007  740107  740108  740008
CQUAD4  3597    1701    740008  740108  740109  740009
CQUAD4  3598    1701    740009  740109  740100  740000
CQUAD4  3599    1701    740100  740200  740201  740101
CQUAD4  3600    1701    740101  740201  740202  740102
CQUAD4  3601    1701    740102  740202  740203  740103
CQUAD4  3602    1701    740103  740203  740204  740104
CQUAD4  3603    1701    740104  740204  740205  740105
CQUAD4  3604    1701    740105  740205  740206  740106
CQUAD4  3605    1701    740106  740206  740207  740107
CQUAD4  3606    1701    740107  740207  740208  740108
CQUAD4  3607    1701    740108  740208  740209  740109
CQUAD4  3608    1701    740109  740209  740200  740100
$ ... 200 like lines cut
CBAR    3809    1201    740000  740001  1.0     0.      0.
CBAR    3810    1201    740001  740002  0.      0.      1.
CBAR    3811    1201    740002  740003  0.      0.      1.
CBAR    3812    1201    740003  740004  0.      0.      1.
CBAR    3813    1201    740004  740005  1.0     0.      0.
CBAR    3814    1201    740005  740006  1.0     0.      0.
CBAR    3815    1201    740006  740007  0.      0.      1.
CBAR    3816    1201    740007  740008  0.      0.      1.
CBAR    3817    1201    740008  740009  0.      0.      1.
CBAR    3818    1201    740009  740000  1.0     0.      0.
CBAR    3819    1201    740200  740201  1.0     0.      0.
CBAR    3820    1201    740201  740202  0.      0.      1.
CBAR    3821    1201    740202  740203  0.      0.      1.
CBAR    3822    1201    740203  740204  0.      0.      1.
CBAR    3823    1201    740204  740205  1.0     0.      0.
CBAR    3824    1201    740205  740206  1.0     0.      0.
CBAR    3825    1201    740206  740207  0.      0.      1.
CBAR    3826    1201    740207  740208  0.      0.      1.
CBAR    3827    1201    740208  740209  0.      0.      1.
CBAR    3828    1201    740209  740200  1.0     0.      0.
$ ... 100 like lines cut
GRID    749010          4063.75 4000    250
RBE2    3929    749010  123456  740900  740901  740902  740903  740904
+       740905  740906  740907  740908  740909
CBAR    3930    1703    749010  401209  1.0     0.      0.
GRID    749011          4682.5  4000    250
RBE2    3931    749011  123456  741200  741201  741202  741203  741204
+       741205  741206  741207  741208  741209
CBAR    3932    1703    749011  401212  1.0     0.      0.
GRID    990104          3000    4000    950
GRID    749020          3000    4000    250
RBE2    3933    749020  123456  740400  740401  740402  740403  740404
+       740405  740406  740407  740408  740409
CBAR    3934    1702    749020  990104  1.0     0.      0.
GRID    990108          6000    4000    950
GRID    749021          6000    4000    250
RBE2    3935    749021  123456  741800  741801  741802  741803  741804
+       741805  741806  741807  741808  741809
CBAR    3936    1702    749021  990108  1.0     0.      0.
CONM2   800001  400109  0       0.00475
CONM2   800002  400110  0       0.00475
CONM2   800003  400111  0       0.00475
CONM2   800004  400112  0       0.00475
CONM2   800005  400209  0       0.00475
CONM2   800006  400210  0       0.00475
CONM2   800007  400211  0       0.00475
CONM2   800008  400212  0       0.00475
CONM2   800009  400309  0       0.00475
CONM2   800010  400310  0       0.00475
CONM2   800011  400311  0       0.00475
CONM2   800012  400312  0       0.00475
CONM2   800013  400409  0       0.00475
CONM2   800014  400410  0       0.00475
CONM2   800015  400411  0       0.00475
CONM2   800016  400412  0       0.00475
CONM2   800017  400509  0       0.00475
CONM2   800018  400510  0       0.00475
CONM2   800019  400511  0       0.00475
CONM2   800020  400512  0       0.00475
$ ... 111 like lines cut
GRID    992001          1500    -6.4e-14-975
GRID    992002          1500    0       -1250
CBAR    3937    1704    100419  992001  1.0     0.      0.
CBAR    3938    1704    992001  992002  1.0     0.      0.
CBAR    3939    1704    100219  992001  0.      0.      1.
CBAR    3940    1704    100619  992001  0.      0.      1.
CONM2   800132  992002  0       0.03
GRID    992011          4750    300     -975
GRID    992012          4750    600     -1250
CBAR    3941    1704    101719  992011  0.      0.      1.
CBAR    3942    1704    992011  992012  0.      0.      1.
CBAR    3943    1704    101519  992011  0.      0.      1.
CBAR    3944    1704    101919  992011  0.      0.      1.
CONM2   800133  992012  0       0.0225
GRID    992021          4750    -300    -975
GRID    992022          4750    -600    -1250
CBAR    3945    1704    101719  992021  0.      0.      1.
CBAR    3946    1704    992021  992022  0.      0.      1.
CBAR    3947    1704    101519  992021  0.      0.      1.
CBAR    3948    1704    101919  992021  0.      0.      1.
CONM2   800134  992022  0       0.0225
GRID    991001          3300    -4000   950
CBAR    3949    1801    990101  991001  0.      0.      1.
GRID    991002          3550    -4000   950
CBAR    3950    1801    991001  991002  0.      0.      1.
GRID    991003          3750    -4000   950
CBAR    3951    1801    991002  991003  0.      0.      1.
GRID    991011          3000    -3700   950
CBAR    3952    1801    990101  991011  0.      0.      1.
GRID    991012          3000    -3450   950
CBAR    3953    1801    991011  991012  0.      0.      1.
GRID    991013          3000    -3250   950
CBAR    3954    1801    991012  991013  0.      0.      1.
GRID    991021          2700    -4000   950
CBAR    3955    1801    990101  991021  0.      0.      1.
GRID    991022          2450    -4000   950
CBAR    3956    1801    991021  991022  0.      0.      1.
GRID    991023          2250    -4000   950
CBAR    3957    1801    991022  991023  0.      0.      1.
GRID    991031          3000    -4300   950
CBAR    3958    1801    990101  991031  0.      0.      1.
GRID    991032          3000    -4550   950
CBAR    3959    1801    991031  991032  0.      0.      1.
GRID    991033          3000    -4750   950
CBAR    3960    1801    991032  991033  0.      0.      1.
GRID    991101          6212.13 -3787.87950
CBAR    3961    1801    990105  991101  0.      0.      1.
GRID    991102          6388.91 -3611.09950
CBAR    3962    1801    991101  991102  0.      0.      1.
GRID    991103          6530.33 -3469.67950
CBAR    3963    1801    991102  991103  0.      0.      1.
GRID    991111          5787.87 -3787.87950
CBAR    3964    1801    990105  991111  0.      0.      1.
GRID    991112          5611.09 -3611.09950
CBAR    3965    1801    991111  991112  0.      0.      1.
GRID    991113          5469.67 -3469.67950
CBAR    3966    1801    991112  991113  0.      0.      1.
GRID    991121          5787.87 -4212.13950
CBAR    3967    1801    990105  991121  0.      0.      1.
GRID    991122          5611.09 -4388.91950
CBAR    3968    1801    991121  991122  0.      0.      1.
$ ... 152 like lines cut
AEROS   0       0       1350    12000   1.62e+07
PAERO1  1000
SET1    101     400000  400002  400005  400007  400100  400102  400105
+       400107  400200  400202  400205  400207  400300  400302  400305
+       400307  400400  400402  400405  400407  400500  400502  400505
+       400507  400600  400602  400605  400607  400700  400702  400705
+       400707  400800  400802  400805  400807  400900  400902  400905
+       400907  401000  401002  401005  401007  401100  401102  401105
+       401107  401200  401202  401205  401207  401300  401302  401305
+       401307  401400  401402  401405  401407  401500  401502  401505
+       401507  401600  401602  401605  401607  401700  401702  401705
+       401707  401800  401802  401805  401807  401900  401902  401905
+       401907  402000  402002  402005  402007
CAERO1  1000001 1000    0       16      6       0       0       1
+       3765.62 0       550     1687.5  3934.38 6000    550     1012.5
SPLINE1 30101   1000001 1000001 1000096 101
SET1    102     300000  300002  300005  300007  300100  300102  300105
+       300107  300200  300202  300205  300207  300300  300302  300305
+       300307  300400  300402  300405  300407  300500  300502  300505
+       300507  300600  300602  300605  300607  300700  300702  300705
+       300707  300800  300802  300805  300807  300900  300902  300905
+       300907  301000  301002  301005  301007  301100  301102  301105
+       301107  301200  301202  301205  301207  301300  301302  301305
+       301307  301400  301402  301405  301407  301500  301502  301505
+       301507  301600  301602  301605  301607  301700  301702  301705
+       301707  301800  301802  301805  301807  301900  301902  301905
+       301907  302000  302002  302005  302007
CAERO1  2000001 1000    0       16      6       0       0       1
+       3765.62 0       550     1687.5  3934.38 -6000   550     1012.5
SPLINE1 30102   2000001 2000001 2000096 102
SET1    103     600000  600001  600003  600005  600100  600101  600103
+       600105  600200  600201  600203  600205  600300  600301  600303
+       600305  600400  600401  600403  600405  600500  600501  600503
+       600505  600600  600601  600603  600605  600700  600701  600703
+       600705
CAERO1  3000001 1000    0       6       3       0       0       1
+       7800    250     300     630     8491.54 1705.48 1521.3  420
SPLINE1 30103   3000001 3000001 3000018 103
CAERO1  3100001 1000    0       5       2       0       0       1
+       8526.31 541.097 544.259 252     8887.47 1632.71 1460.23 184.5
SPLINE1 31103   3100001 3100001 3100010 103
AELIST  3111    3100001 3100002 3100003 3100004 3100005 3100006 3100007
+       3100008 3100009 3100010
CORD2R  11      0       8526.31 541.097 544.259 8526.31 476.818 620.864
+       8626.31 541.097 544.259
SET1    104     500000  500001  500003  500005  500100  500101  500103
+       500105  500200  500201  500203  500205  500300  500301  500303
+       500305  500400  500401  500403  500405  500500  500501  500503
+       500505  500600  500601  500603  500605  500700  500701  500703
+       500705
CAERO1  4000001 1000    0       6       3       0       0       1
+       7800    -250    300     630     8491.54 -1705.481521.3  420
SPLINE1 30104   4000001 4000001 4000018 104
CAERO1  4100001 1000    0       5       2       0       0       1
+       8526.31 -541.097544.259 252     8887.47 -1632.711460.23 184.5
SPLINE1 31104   4100001 4100001 4100010 104
AELIST  4111    4100001 4100002 4100003 4100004 4100005 4100006 4100007
+       4100008 4100009 4100010
CORD2R  21      0       8526.31 -541.097544.259 8526.31 -476.818620.864
+       8626.31 -541.097544.259
AESTAT  1711    ANGLEA
AESTAT  1712    SIDES
AESTAT  1713    ROLL
AESTAT  1714    YAW
AESTAT  1715    URDD2
AESTAT  1716    URDD4
AESTAT  1717    URDD6
AESTAT  1718    ELEV
AESTAT  1719    RUD
AESURF  1001    ELEVR   11      3111
AESURF  1002    ELEVL   21      4111
AELINK  1       ELEVR   ELEV    1       RUD     1
AELINK  2       ELEVL   ELEV    1       RUD     -1
TRIM    1       0.1175430.00098 ROLL    0       YAW     0       URDD2
+       0       URDD4   0       URDD6   0       SIDES   0       RUD
+       0
TRIM    2       0.1763150.002205ROLL    0       YAW     0       URDD2
+       0       URDD4   0       URDD6   0       SIDES   0       RUD
+       0
TRIM    3       0.2350870.00392 ROLL    0       YAW     0       URDD2
+       0       URDD4   0       URDD6   0       SIDES   0       RUD
+       0
SPC1    2       123     101519
SPC1    2       23      101719
SPC1    2       3       101501
EIGRL   100                     12
CONM2   800135  103419  0       0.028289
ENDDATA
